<?xml version="1.0" encoding="UTF-8"?>

<!-- generated on 2026-01-12T09:12:47.200295-05:00 by Eclipse SUMO sumo 1.25.0
-->

<sumoConfiguration xmlns:xsi="http://www.w3.org/2001/XMLSchema-instance" xsi:noNamespaceSchemaLocation="http://sumo.dlr.de/xsd/sumoConfiguration.xsd">

    <input>
        <net-file value="Sample.net.xml"/>
        <route-files value="Sample.rou.xml"/>
    </input>

</sumoConfiguration>
