<?xml version="1.0" encoding="UTF-8"?>

<!-- generated on 2026-01-12T09:12:46.793070-05:00 by Eclipse SUMO netedit 1.25.0
<neteditConfiguration xmlns:xsi="http://www.w3.org/2001/XMLSchema-instance" xsi:noNamespaceSchemaLocation="http://sumo.dlr.de/xsd/neteditConfiguration.xsd">

    <input>
        <sumocfg-file value="C:\Users\ahmad\Downloads\Sample\Sample.sumocfg"/>
        <route-files value="C:\Users\ahmad\Downloads\Sample\Sample.rou.xml"/>
        <sumo-net-file value="C:\Users\ahmad\Downloads\Sample\Sample.net.xml"/>
    </input>

    <output>
        <output-file value="C:\Users\ahmad\Downloads\Sample\Sample.net.xml"/>
    </output>

    <processing>
        <offset.disable-normalization value="true"/>
    </processing>

    <junctions>
        <no-turnarounds value="true"/>
    </junctions>

    <netedit>
        <new-network value="false"/>
    </netedit>

</neteditConfiguration>
-->

<net version="1.20" junctionCornerDetail="5" limitTurnSpeed="5.50" xmlns:xsi="http://www.w3.org/2001/XMLSchema-instance" xsi:noNamespaceSchemaLocation="http://sumo.dlr.de/xsd/net_file.xsd">

    <location netOffset="0.00,0.00" convBoundary="-70.55,-50.17,77.62,-15.72" origBoundary="10000000000.00,10000000000.00,-10000000000.00,-10000000000.00" projParameter="!"/>

    <edge id=":J6_0" function="internal">
        <lane id=":J6_0_0" index="0" speed="13.89" length="11.21" shape="9.53,-14.35 -1.68,-14.39"/>
    </edge>
    <edge id=":J6_1" function="internal">
        <lane id=":J6_1_0" index="0" speed="6.45" length="9.03" shape="4.06,-23.20 4.34,-20.74 5.35,-18.97 7.08,-17.91 9.54,-17.55"/>
    </edge>
    <edge id=":J6_2" function="internal">
        <lane id=":J6_2_0" index="0" speed="7.40" length="11.75" shape="4.06,-23.20 3.61,-19.34 2.50,-16.58 0.74,-14.93 -1.68,-14.39"/>
    </edge>
    <edge id=":J6_3" function="internal">
        <lane id=":J6_3_0" index="0" speed="13.89" length="11.20" shape="-1.66,-17.59 9.54,-17.55"/>
    </edge>

    <edge id="-E3" from="J6" to="J5" priority="-1">
        <lane id="-E3_0" index="0" speed="13.89" length="68.88" shape="-1.68,-14.39 -70.56,-14.71"/>
    </edge>
    <edge id="-E4" from="J7" to="J6" priority="-1">
        <lane id="-E4_0" index="0" speed="13.89" length="68.09" shape="77.61,-14.12 9.53,-14.35"/>
    </edge>
    <edge id="E3" from="J5" to="J6" priority="-1">
        <lane id="E3_0" index="0" speed="13.89" length="68.88" shape="-70.54,-17.91 -1.66,-17.59"/>
    </edge>
    <edge id="E4" from="J6" to="J7" priority="-1">
        <lane id="E4_0" index="0" speed="13.89" length="68.09" shape="9.54,-17.55 77.63,-17.32"/>
    </edge>
    <edge id="E5" from="J8" to="J6" priority="-1">
        <lane id="E5_0" index="0" speed="13.89" length="26.93" shape="4.84,-50.12 4.06,-23.20"/>
    </edge>

    <tlLogic id="J6" type="static" programID="0" offset="0">
        <phase duration="42" state="GrrG"/>
        <phase duration="3"  state="yrry"/>
        <phase duration="42" state="rGGr"/>
        <phase duration="3"  state="ryyr"/>
    </tlLogic>

    <junction id="J5" type="dead_end" x="-70.55" y="-16.31" incLanes="-E3_0" intLanes="" shape="-70.55,-16.31 -70.56,-13.11 -70.55,-16.31"/>
    <junction id="J6" type="traffic_light" x="2.25" y="-15.97" incLanes="-E4_0 E5_0 E3_0" intLanes=":J6_0_0 :J6_1_0 :J6_2_0 :J6_3_0" shape="9.52,-12.75 9.54,-19.15 7.33,-19.60 6.57,-20.16 6.04,-20.93 5.74,-21.94 5.66,-23.16 2.46,-23.25 1.95,-20.99 1.37,-20.19 0.58,-19.63 -0.43,-19.30 -1.66,-19.19 -1.69,-12.79">
        <request index="0" response="0000" foes="0100" cont="0"/>
        <request index="1" response="1000" foes="1000" cont="0"/>
        <request index="2" response="1001" foes="1001" cont="0"/>
        <request index="3" response="0000" foes="0110" cont="0"/>
    </junction>
    <junction id="J7" type="dead_end" x="77.62" y="-15.72" incLanes="E4_0" intLanes="" shape="77.62,-15.72 77.63,-18.92 77.62,-15.72"/>
    <junction id="J8" type="dead_end" x="3.24" y="-50.17" incLanes="" intLanes="" shape="3.24,-50.17 6.44,-50.08"/>

    <connection from="-E4" to="-E3" fromLane="0" toLane="0" via=":J6_0_0" tl="J6" linkIndex="0" dir="s" state="O"/>
    <connection from="E3" to="E4" fromLane="0" toLane="0" via=":J6_3_0" tl="J6" linkIndex="3" dir="s" state="O"/>
    <connection from="E5" to="E4" fromLane="0" toLane="0" via=":J6_1_0" tl="J6" linkIndex="1" dir="r" state="o"/>
    <connection from="E5" to="-E3" fromLane="0" toLane="0" via=":J6_2_0" tl="J6" linkIndex="2" dir="l" state="o"/>

    <connection from=":J6_0" to="-E3" fromLane="0" toLane="0" dir="s" state="M"/>
    <connection from=":J6_1" to="E4" fromLane="0" toLane="0" dir="r" state="M"/>
    <connection from=":J6_2" to="-E3" fromLane="0" toLane="0" dir="l" state="M"/>
    <connection from=":J6_3" to="E4" fromLane="0" toLane="0" dir="s" state="M"/>

</net>
