<?xml version="1.0" encoding="UTF-8"?>

<!-- generated on 2026-01-12T09:12:38.526503-05:00 by Eclipse SUMO netedit 1.25.0
-->

<routes xmlns:xsi="http://www.w3.org/2001/XMLSchema-instance" xsi:noNamespaceSchemaLocation="http://sumo.dlr.de/xsd/routes_file.xsd">
    <!-- Vehicles, persons and containers (sorted by depart) -->
    <trip id="t_0" depart="0.00" from="E3" to="E4"/>
    <trip id="t_1" depart="0.00" from="-E4" to="-E3"/>
</routes>
